* PSpice Model Editor - Version 22.1.0
*$
*BeginSpec
*IF: (1.6000,0) (1.8000,1.0000E-3) (2,5.0000E-3) (2.2000,20.000E-3) (2.4000,40.000E-3) (2.5000,80.000E-3)
*JC:
*RL: (1,0) (25,300.00E-12) (50,400.00E-12) (75,500.00E-12) (100,550.00E-12)
*RB: Vz=100 Iz=1.0000E3 Zz=100
*RR: Trr=0 Ifwd=10.000E-3 Irev=10.000E-3 Rl=100
*EndSpec

*BeginTrace
*IF: 1,0,.4,2.5000,1,3,0,0,-1 (27)
*JC: 0,1,.1,10,1,3,0,0,-1 (27)
*RL: 0,0,1,100,1,3,0,0,-1 (27)
*RB: 0,1,100.00E-6,1,1,3,0,0,-1 (27)
*RR: 0,0,-5.0000E-9,20.000E-9,1,3,0,0,-1 (27)
*EndTrace

*BeginParam
*IS=939.33E-12 (10.000E-21,.1,0)
*N=5 (.2,5,0)
*RS=1.9654 (1.0000E-6,100,0)
*IKF=0 (0,1.0000E3,0)
*XTI=3 (-100,100,0)
*EG=1.1100 (.1,5.5100,0)
*CJO=1.0000E-12 (10.000E-21,1.0000E-3,0)
*M=.3333 (.1,10,0)
*VJ=.75 (.3905,10,0)
*FC=.5 (1.0000E-3,10,0)
*ISR=10.010E-21 (10.000E-21,.1,0)
*NR=4.9950 (.5,5,0)
*BV=.1 (.1,1.0000E6,0)
*IBV=263.83E-9 (1.0000E-9,10,0)
*TT=5.0000E-9 (100.00E-18,1.0000E-3,0)
*EndParam

*DEVICE=RedLED,D

* RedLED D model
* updated using Model Editor release 22.1.0 on 04/19/24 at 14:03
* The Model Editor is a PSpice product.
.MODEL RedLED D
+ IS=939.33E-12
+ N=5
+ RS=1.9654
+ CJO=1.0000E-12
+ M=.3333
+ VJ=.75
+ ISR=10.010E-21
+ NR=4.9950
+ BV=.1
+ IBV=263.83E-9
+ TT=5.0000E-9
*$
